     303
Both hydrogens down config
W        7.89011394      24.30252360       1.81066589
S        9.46765429      25.87581969       0.89905136
S        9.46754172      22.72832202       0.90037148
W       11.04502378      24.30237610       1.81055918
S       12.62274355      25.87543246       0.89896937
S       12.62231878      22.72792717       0.90030122
W       14.19996727      24.30186571       1.81047964
S       15.77758220      25.87514542       0.89912422
S       15.77745117      22.72763540       0.90011267
W       17.35490466      24.30168549       1.81051181
S       18.93242861      25.87533668       0.89950824
S       18.93241412      22.72783817       0.89973897
W       20.50973826      24.30164445       1.81061466
S       22.08741914      25.87530305       0.89988696
S       22.08695457      22.72781571       0.89943723
W       23.66452131      24.30110957       1.81064889
S       25.24234193      25.87470140       0.90006597
S       25.24167142      22.72723056       0.89939492
W       26.81931291      24.30037310       1.81080030
S       28.39692525      25.87404545       0.90005240
S       28.39666518      22.72659013       0.89971545
W       29.97414105      24.30013344       1.81090377
S       31.55129855      25.87410494       0.89982432
S       31.55190432      22.72664163       0.90006155
W       33.12897132      24.30085842       1.81091792
S       34.70592336      25.87496923       0.89956681
S       34.70689129      22.72749547       0.90023636
W       36.28376570      24.30196038       1.81084552
S       37.86094224      25.87570952       0.89926811
S       37.86144667      22.72822069       0.90032903
W        6.31250348      24.30326618       4.54347615
S        7.88965204      25.87702961       3.63181143
S        7.89013554      22.72954529       3.63292417
W        9.46732713      24.30379878       4.54320702
S       11.04493100      25.87701648       3.63152301
S       11.04464573      22.72951353       3.63289023
W       12.62224469      24.30347131       4.54303975
S       14.20001026      25.87646764       3.63139105
S       14.19948757      22.72895406       3.63279276
W       15.77715647      24.30288147       4.54302121
S       17.35495740      25.87600774       3.63166245
S       17.35446195      22.72850466       3.63265799
W       18.93203214      24.30231296       4.54319297
S       20.50994304      25.87552305       3.63218078
S       20.50916049      22.72803567       3.63247574
W       22.08687786      24.30142867       4.54332562
S       23.66483228      25.87464299       3.63247311
S       23.66387731      22.72718102       3.63229051
W       25.24163957      24.30036318       4.54349435
S       26.81935365      25.87384109       3.63270632
S       26.81889384      22.72640361       3.63244788
W       28.39646387      24.29987374       4.54362286
S       29.97371610      25.87378801       3.63268698
S       29.97420795      22.72636131       3.63269971
W       31.55133416      24.30045250       4.54368781
S       33.12816326      25.87477556       3.63254507
S       33.12944886      22.72733313       3.63286863
W       34.70617868      24.30188687       4.54365117
S       36.28297895      25.87618073       3.63226859
S       36.28421840      22.72871127       3.63295166
W        4.73490151      24.30283910       7.27633550
S        6.31167129      25.87727897       6.36506509
S        6.31294277      22.72980527       6.36538921
W        7.88971118      24.30424365       7.27608474
S        9.46687822      25.87810297       6.36452815
S        9.46730722      22.73061743       6.36527521
W       11.04456117      24.30471842       7.27570519
S       12.62215755      25.87803141       6.36410502
S       12.62192575      22.73053386       6.36528928
W       14.19946524      24.30449960       7.27562307
S       15.77727380      25.87750031       6.36404662
S       15.77658819      22.72996034       6.36531204
W       17.35423150      24.30374918       7.27574702
S       18.93232856      25.87664922       6.36445033
S       18.93128529      22.72916357       6.36533918
W       20.50915352      24.30258004       7.27592360
S       22.08736435      25.87545227       6.36483325
S       22.08609532      22.72799371       6.36530973
W       23.66398050      24.30118306       7.27623149
S       25.24196727      25.87417391       6.36514447
S       25.24095416      22.72673309       6.36539678
W       26.81876440      24.30005868       7.27634520
S       28.39627659      25.87360448       6.36531043
S       28.39626551      22.72617902       6.36547193
W       29.97363120      24.30005202       7.27639284
S       31.55064766      25.87420896       6.36538462
S       31.55166931      22.72677669       6.36552624
W       33.12853033      24.30116800       7.27642404
S       34.70523988      25.87570093       6.36536774
S       34.70677089      22.72825189       6.36550284
W        3.15719140      24.30183539      10.00908028
S        4.73389911      25.87647799       9.09816019
S        4.73546773      22.72900679       9.09800442
W        6.31205618      24.30352772      10.00897897
S        7.88891624      25.87801288       9.09789490
S        7.89003863      22.73052508       9.09778255
W        9.46690528      24.30475589      10.00863652
S       11.04404256      25.87876732       9.09722933
S       11.04448940      22.73127897       9.09752391
W       12.62157323      24.30528064      10.00839537
S       14.19926972      25.87880470       9.09699214
S       14.19907128      22.73139911       9.09768047
W       15.77647336      24.30519020      10.00869482
S       17.35461881      25.87801782       9.09712123
S       17.35341000      22.73062975       9.09781475
W       18.93150202      24.30378823      10.00852024
S       20.50968503      25.87670416       9.09737283
S       20.50837717      22.72923045       9.09784941
W       22.08624574      24.30238627      10.00887660
S       23.66445283      25.87524992       9.09780007
S       23.66315006      22.72779087       9.09825096
W       25.24106548      24.30096569      10.00914479
S       26.81891062      25.87401941       9.09788535
S       26.81815564      22.72657528       9.09833505
W       28.39588998      24.30011849      10.00908831
S       29.97319271      25.87388319       9.09800165
S       29.97360631      22.72643034       9.09824517
W       31.55077312      24.30054563      10.00908962
S       33.12768509      25.87487003       9.09815515
S       33.12890454      22.72740793       9.09815988
W        1.57942113      24.30101809      12.74171328
S        3.15624134      25.87548730      11.83084299
S        3.15758449      22.72797360      11.83070961
W        4.73424008      24.30243935      12.74171196
S        6.31104058      25.87708996      11.83090131
S        6.31236379      22.72955702      11.83049816
W        7.88897549      24.30386356      12.74165600
S        9.46624453      25.87808975      11.83081878
S        9.46671611      22.73076721      11.83012621
W       11.04386001      24.30438042      12.74167402
S       12.62098310      25.87856367      11.83038695
S       12.62105542      22.73089473      11.82962087
W       14.19889025      24.30418450      12.73938325
S       15.77653042      25.87879066      11.83073913
S       15.77575322      22.73002252      11.82942025
W       17.35337813      24.30328031      12.73924024
S       18.93189245      25.87721369      11.83033195
S       18.93100395      22.72949730      11.82981774
W       20.50848663      24.30274739      12.74178590
S       22.08653472      25.87608980      11.83079951
S       22.08571143      22.72880259      11.83066719
W       23.66348242      24.30191641      12.74193100
S       25.24145986      25.87497026      11.83076841
S       25.24036758      22.72747647      11.83106373
W       26.81825635      24.30071270      12.74187012
S       28.39585180      25.87405968      11.83063954
S       28.39552215      22.72657160      11.83098065
W       29.97304600      24.30031640      12.74174220
S       31.55019569      25.87432022      11.83074462
S       31.55088251      22.72683397      11.83081384
W        0.00172336      24.30049990      15.47434158
S        1.57868073      25.87472554      14.56342514
S        1.57961715      22.72719277      14.56335341
W        3.15647916      24.30148551      15.47434923
S        4.73320233      25.87606075      14.56354462
S        4.73449725      22.72847949      14.56326472
W        6.31112129      24.30286942      15.47439331
S        7.88803922      25.87726553      14.56370670
S        7.88868286      22.72967005      14.56300788
W        9.46557841      24.30350274      15.47438783
S       11.04262851      25.87741438      14.56404556
S       11.04235736      22.72947220      14.56277507
W       12.61819923      24.30247318      15.47612373
S       14.19659063      25.87123510      14.56479828
S       14.19748764      22.73098127      14.56287271
W       15.77580324      24.30196113      15.47775155
S       17.35593004      25.86995968      14.56450492
S       17.35361191      22.73021375      14.56288153
W       18.93350629      24.30116750      15.47609506
S       20.50937864      25.87597310      14.56401638
S       20.50924506      22.72801021      14.56296637
W       22.08616282      24.30192571      15.47456788
S       23.66395392      25.87552866      14.56388643
S       23.66317034      22.72797557      14.56345805
W       25.24075658      24.30113312      15.47466116
S       26.81850095      25.87449152      14.56362181
S       26.81778730      22.72696729      14.56359008
W       28.39545865      24.30033570      15.47449452
S       29.97276554      25.87409481      14.56341662
S       29.97294401      22.72658287      14.56345827
W       -1.57584998      24.30010743      18.20704728
S        0.00123336      25.87419288      17.29605460
S        0.00191523      22.72668654      17.29599122
W        1.57894271      24.30083520      18.20693525
S        3.15581068      25.87520499      17.29606023
S        3.15692550      22.72764285      17.29598653
W        4.73370835      24.30203525      18.20693842
S        6.31067794      25.87648218      17.29625448
S        6.31153842      22.72887349      17.29586779
W        7.88844224      24.30297621      18.20699166
S        9.46593096      25.87692220      17.29655676
S        9.46565080      22.72929757      17.29581537
W       11.04322568      24.30269413      18.20724646
S       12.62146513      25.87621135      17.29753727
S       12.61979360      22.72789045      17.29630857
W       14.19875793      24.30085204      18.20685956
S       15.77584388      25.87474676      17.29849081
S       15.77537776      22.72561508      17.29616498
W       17.35239534      24.30038302      18.20680782
S       18.93024947      25.87517772      17.29736389
S       18.93101196      22.72686908      17.29637184
W       20.50800384      24.30123682      18.20728636
S       22.08576641      25.87519677      17.29685325
S       22.08547981      22.72763184      17.29590858
W       23.66296316      24.30089889      18.20722192
S       25.24079548      25.87452725      17.29666657
S       25.24017615      22.72697666      17.29604591
W       26.81783130      24.30019920      18.20720519
S       28.39531572      25.87392384      17.29631472
S       28.39524274      22.72640140      17.29609810
W       -3.15349352      24.29984410      20.93972148
S       -1.57625542      25.87378089      20.02874905
S       -1.57578772      22.72627843      20.02873258
W        0.00135206      24.30034422      20.93958502
S        1.57828346      25.87461589      20.02857183
S        1.57929432      22.72708878      20.02862477
W        3.15614764      24.30144771      20.93949353
S        4.73312797      25.87580199      20.02863936
S        4.73406915      22.72823114      20.02855447
W        6.31093056      24.30247155      20.93950256
S        7.88833866      25.87656665      20.02888078
S        7.88838783      22.72895100      20.02841089
W        9.46565471      24.30253104      20.93960280
S       11.04363705      25.87604342      20.02921259
S       11.04257603      22.72847260      20.02852383
W       12.62056016      24.30144027      20.93947419
S       14.19858903      25.87472941      20.02860464
S       14.19755926      22.72710585      20.02863469
W       15.77538299      24.30044803      20.93944784
S       17.35282381      25.87418716      20.02860084
S       17.35277959      22.72658906      20.02857024
W       18.93018675      24.30033404      20.93950059
S       20.50768989      25.87441028      20.02929104
S       20.50787042      22.72688284      20.02850809
W       22.08515946      24.30045100      20.93970168
S       23.66283335      25.87424694      20.02917558
S       23.66255351      22.72668650      20.02860462
W       25.24006476      24.30011778      20.93974930
S       26.81772756      25.87373825      20.02900667
S       26.81749117      22.72621910      20.02879768
W       -4.73130420      24.30021007      23.67225815
S       -3.15372385      25.87373739      22.76120811
S       -3.15373311      22.72622674      22.76159321
W       -1.57635655      24.30016694      23.67221454
S        0.00080073      25.87417237      22.76114974
S        0.00151307      22.72666344      22.76137881
W        1.57849806      24.30093469      23.67211852
S        3.15547738      25.87524415      22.76115732
S        3.15643168      22.72770738      22.76117550
W        4.73329216      24.30197950      23.67204547
S        6.31060032      25.87613540      22.76131506
S        6.31091909      22.72856868      22.76099668
W        7.88806486      24.30231718      23.67211612
S        9.46587230      25.87604169      22.76156329
S        9.46521255      22.72847349      22.76098901
W       11.04293480      24.30160809      23.67209679
S       12.62095281      25.87499488      22.76132873
S       12.61989688      22.72742664      22.76100302
W       14.19772161      24.30052466      23.67210731
S       15.77530941      25.87411753      22.76112948
S       15.77497563      22.72653624      22.76113775
W       17.35242023      24.30019226      23.67212960
S       18.92972898      25.87407739      22.76115523
S       18.93002548      22.72652990      22.76126630
W       20.50725144      24.30048613      23.67216081
S       22.08480601      25.87423794      22.76131140
S       22.08485452      22.72671935      22.76144955
W       23.66222241      24.30052565      23.67224974
S       25.23992292      25.87400377      22.76125546
S       25.23965112      22.72648328      22.76157668
W       -6.30919581      24.30125361      26.40478036
S       -4.73149582      25.87450102      25.49342419
S       -4.73178167      22.72698661      25.49438603
W       -3.15424037      24.30089959      26.40473207
S       -1.57667270      25.87430202      25.49348404
S       -1.57665194      22.72679440      25.49427265
W        0.00071148      24.30087428      26.40471456
S        1.57793263      25.87480580      25.49365372
S        1.57851901      22.72729998      25.49395013
W        3.15557558      24.30150053      26.40467464
S        4.73286453      25.87559992      25.49386024
S        4.73321859      22.72808002      25.49359528
W        6.31034702      24.30187125      26.40468767
S        7.88802841      25.87572013      25.49413015
S        7.88763281      22.72819360      25.49347526
W        9.46517613      24.30142277      26.40473016
S       11.04307115      25.87499297      25.49411932
S       11.04227435      22.72748204      25.49350657
W       12.61997060      24.30057285      26.40482963
S       14.19761295      25.87415046      25.49392024
S       14.19727966      22.72665628      25.49381329
W       15.77475291      24.30025941      26.40488844
S       17.35198193      25.87412550      25.49370932
S       17.35242445      22.72662767      25.49409024
W       18.92954629      24.30079649      26.40486181
S       20.50678905      25.87461991      25.49355160
S       20.50721972      22.72711698      25.49420262
W       22.08437015      24.30128816      26.40481358
S       23.66191043      25.87477886      25.49349103
S       23.66188763      22.72726697      25.49434682
O       15.80347340      28.91509024      15.31945896
H       16.57136463      28.31613903      15.33726417
H       15.04681888      28.30153070      15.33148513
